Circuit: * C:\Documents and Settings\jpeck\My Documents\projects\ec100\reva\data\protoscript\ltspice\acswitch_bustre.asc

Direct Newton iteration for .op point succeeded.

Date: Thu May 24 16:21:02 2012
Total elapsed time: 0.063 seconds.

tnom = 27
temp = 27
method = modified trap
totiter = 2591
traniter = 2587
tranpoints = 1291
accept = 1237
rejected = 54
matrix size = 9
fillins = 0
solver = Normal
Matrix Compiler1: 206 bytes object code size  2.7/2.6/[2.4]
Matrix Compiler2: off  [2.5]/2.9/2.8


