Circuit: * C:\Documents and Settings\jpeck.THINKSRS\My Documents\ec100\anal_ctrl_board\sims\pa_bootstrap.asc

V3: Missing value, assumed 0V @ DC

Date: Wed Mar 11 13:16:46 2009
Total elapsed time: 0.048 seconds.

tnom = 27
temp = 27
method = trap
totiter = 173
traniter = 0
tranpoints = 0
accept = 0
rejected = 0
matrix size = 70
fillins = 61
solver = Normal
Matrix Compiler1: 9.44 KB object code size  7.4/5.8/[4.5]
Matrix Compiler2: off  [3.9]/4.7/5.2


