Circuit: * C:\Documents and Settings\jpeck.THINKSRS\My Documents\ec100\anal_ctrl_board\sims\switch_rails.asc

Direct Newton iteration for .op point succeeded.
Heightened Def Con from 9.76562e-014 to 1.0001e-009

Date: Tue Jun 23 16:39:27 2009
Total elapsed time: 0.171 seconds.

tnom = 27
temp = 27
method = modified trap
totiter = 4602
traniter = 4569
tranpoints = 1458
accept = 1348
rejected = 111
matrix size = 56
fillins = 28
solver = Normal
Matrix Compiler1: 5.06 KB object code size  5.4/5.6/[3.4]
Matrix Compiler2: off  [3.9]/4.4/14.8


