Circuit: * C:\Documents and Settings\jpeck\My Documents\projects\ec100\reva\data\protoscript\ltspice\switch_rails.asc

Direct Newton iteration for .op point succeeded.

Date: Thu Feb 23 14:54:15 2012
Total elapsed time: 0.532 seconds.

tnom = 27
temp = 27
method = modified trap
totiter = 5370
traniter = 5320
tranpoints = 1643
accept = 1492
rejected = 151
matrix size = 56
fillins = 28
solver = Normal
Matrix Compiler1: 5.06 KB object code size  21.1/8.3/[4.3]
Matrix Compiler2: off  [5.5]/7.4/26.2


