Circuit: * C:\Documents and Settings\jpeck.THINKSRS\My Documents\ec100\anal_ctrl_board\sims\switch_example.asc

Direct Newton iteration for .op point succeeded.

Date: Tue Jun 23 09:51:28 2009
Total elapsed time: 0.047 seconds.

tnom = 27
temp = 27
method = trap
totiter = 4
traniter = 0
tranpoints = 0
accept = 0
rejected = 0
matrix size = 5
fillins = 0
solver = Normal
Matrix Compiler1: 78 bytes object code size
Matrix Compiler2: 253 bytes object code size

