Circuit: * C:\Documents and Settings\jpeck\My Documents\ec100\anal_ctrl_board\sims\umbilical_boost.asc

Date: Thu May 29 13:13:29 2008
Total elapsed time: 0.015 seconds.

tnom = 27
temp = 27
method = trap
totiter = 0
traniter = 0
tranpoints = 0
accept = 0
rejected = 0
trancuriters = 0
matrix size = 3
fillins = 1
solver = Normal

